Version 4
SHEET 1 880 680
WIRE 528 -64 208 -64
WIRE 208 96 208 -64
WIRE 528 112 528 -64
WIRE 16 144 -48 144
WIRE 144 144 96 144
WIRE -48 208 -48 144
WIRE 208 224 208 192
WIRE -48 384 -48 288
WIRE 208 384 208 304
WIRE 208 384 -48 384
WIRE 528 384 528 192
WIRE 528 384 208 384
FLAG 208 384 0
SYMBOL BJT_NPN_ideal 256 144 R0
WINDOW 0 53 6 Bottom 2
WINDOW 39 112 36 Bottom 2
SYMATTR InstName BJT
SYMATTR SpiceLine VBE=0.7 beta=120
SYMBOL res 192 208 R0
SYMATTR InstName Re
SYMATTR Value 2.2k
SYMBOL res 112 128 R90
WINDOW 0 0 56 VBottom 2
WINDOW 3 32 56 VTop 2
SYMATTR InstName Rb
SYMATTR Value 330k
SYMBOL voltage -48 192 R0
WINDOW 0 -75 25 Left 2
WINDOW 3 -74 90 Left 2
WINDOW 123 0 0 Left 0
WINDOW 39 0 0 Left 0
SYMATTR InstName V1
SYMATTR Value 18
SYMBOL voltage 528 96 R0
WINDOW 123 0 0 Left 0
WINDOW 39 0 0 Left 0
SYMATTR InstName V2
SYMATTR Value 18
TEXT -124 408 Left 2 !.tran 0 100ms 0
