Version 4
SHEET 1 880 680
WIRE 640 -144 384 -144
WIRE 384 -112 384 -144
WIRE 384 32 384 -32
WIRE 640 32 640 -144
WIRE 144 80 64 80
WIRE 320 80 224 80
WIRE 64 144 64 80
WIRE 384 176 384 128
WIRE 64 288 64 224
WIRE 384 288 384 256
WIRE 384 288 64 288
WIRE 640 288 640 112
WIRE 640 288 384 288
WIRE 384 320 384 288
FLAG 384 320 0
SYMBOL voltage 64 128 R0
WINDOW 0 -79 14 Left 2
WINDOW 3 -84 99 Left 2
SYMATTR InstName Vth
SYMATTR Value 3.66
SYMBOL res 240 64 R90
WINDOW 0 0 56 VBottom 2
WINDOW 3 32 56 VTop 2
SYMATTR InstName Rth
SYMATTR Value 59.71
SYMBOL BJT_NPN_ideal 432 80 R0
WINDOW 0 28 3 Bottom 2
WINDOW 39 93 48 Bottom 2
SYMATTR InstName BJT
SYMATTR SpiceLine VBE=0.7 beta=100
SYMBOL res 368 160 R0
SYMATTR InstName Re
SYMATTR Value 20
SYMBOL res 368 -128 R0
SYMATTR InstName Rc
SYMATTR Value 120
SYMBOL voltage 640 16 R0
SYMATTR InstName Vcc
SYMATTR Value 30
TEXT -22 344 Left 2 !.tran 0 100ms 0
